
**** 11/02/17 00:24:12 ******* PSpice Lite (March 2016) ******* ID# 10813 ****

 ** Profile: "SCHEMATIC1-b"  [ D:\PANDA\Study\VE215\PSpice\1\A-PSpiceFiles\SCHEMATIC1\b.sim ] 


 ****     CIRCUIT DESCRIPTION


******************************************************************************




** Creating circuit file "b.cir" 
** WARNING: THIS AUTOMATICALLY GENERATED FILE MAY BE OVERWRITTEN BY SUBSEQUENT SIMULATIONS

*Libraries: 
* Profile Libraries :
* Local Libraries :
* From [PSPICE NETLIST] section of C:\SPB_Data\cdssetup\OrCAD_PSpice\17.2.0\PSpice.ini file:
.lib "nomd.lib" 

*Analysis directives: 
.TRAN  0 0.3 0 
.OPTIONS ADVCONV
.PROBE64 V(alias(*)) I(alias(*)) W(alias(*)) D(alias(*)) NOISE(alias(*)) 
.INC "..\SCHEMATIC1.net" 



**** INCLUDING SCHEMATIC1.net ****
* source A
V_V1         N00623 0  
+PULSE -0.5 0.5 0 0 0 0.5m 1m
R_R1         N00623 N00678  1000 TC=0,0 
C_C1         0 N00678  100n IC=0 TC=0,0 

**** RESUMING b.cir ****
.END

WARNING(ORPSIM-15452): Pulse Period < (Rise Time + Fall Time + Pulse Width) for V_V1.

**** 11/02/17 00:24:12 ******* PSpice Lite (March 2016) ******* ID# 10813 ****

 ** Profile: "SCHEMATIC1-b"  [ D:\PANDA\Study\VE215\PSpice\1\A-PSpiceFiles\SCHEMATIC1\b.sim ] 


 ****     INITIAL TRANSIENT SOLUTION       TEMPERATURE =   27.000 DEG C


******************************************************************************



 NODE   VOLTAGE     NODE   VOLTAGE     NODE   VOLTAGE     NODE   VOLTAGE


(N00623)    -.5000 (N00678)-1.000E-06 




    VOLTAGE SOURCE CURRENTS
    NAME         CURRENT

    V_V1         5.000E-04

    TOTAL POWER DISSIPATION   2.50E-04  WATTS



          JOB CONCLUDED

**** 11/02/17 00:24:12 ******* PSpice Lite (March 2016) ******* ID# 10813 ****

 ** Profile: "SCHEMATIC1-b"  [ D:\PANDA\Study\VE215\PSpice\1\A-PSpiceFiles\SCHEMATIC1\b.sim ] 


 ****     JOB STATISTICS SUMMARY


******************************************************************************



  Total job time (using Solver 1)   =         .05
