
**** 06/18/19 22:51:37 ******* PSpice Lite (March 2016) ******* ID# 10813 ****

 ** Profile: "SCHEMATIC1-HW2b"  [ D:\PANDA\Study\VE311\Homework\HW3\HW3\hw3-pspicefiles\schematic1\hw2b.sim ] 


 ****     CIRCUIT DESCRIPTION


******************************************************************************




** Creating circuit file "HW2b.cir" 
** WARNING: THIS AUTOMATICALLY GENERATED FILE MAY BE OVERWRITTEN BY SUBSEQUENT SIMULATIONS

*Libraries: 
* Profile Libraries :
* Local Libraries :
.LIB "../../../hw3-pspicefiles/hw3.lib" 
* From [PSPICE NETLIST] section of C:\SPB_Data\cdssetup\OrCAD_PSpice\17.2.0\PSpice.ini file:
.lib "nomd.lib" 

*Analysis directives: 
.DC LIN V_V1 0 5 0.0001 
.OPTIONS ADVCONV
.PROBE64 V(alias(*)) I(alias(*)) W(alias(*)) D(alias(*)) NOISE(alias(*)) 
.INC "..\SCHEMATIC1.net" 



**** INCLUDING SCHEMATIC1.net ****
* source HW3
Q_Q1         N00147 N00143 0 Unknown000 
V_V1         N00147 0 2
V_V2         N00143 0 0.7

**** RESUMING HW2b.cir ****
.END

INFO(ORPSIM-15423): Unable to find index file hw3.ind for library file hw3.lib.

INFO(ORPSIM-15422): Making new index file hw3.ind for library file hw3.lib.

Index has 1 entries from 1 file(s).

ERROR(ORPSIM-15113): Model Unknown000 used by Q_Q1 is undefined
