
**** 07/03/19 00:58:14 ******* PSpice Lite (March 2016) ******* ID# 10813 ****

 ** Profile: "SCHEMATIC1-HW5-2"  [ D:\PANDA\Study\VE311\Homework\HW5\HW5-1-PSpiceFiles\SCHEMATIC1\HW5-2.sim ] 


 ****     CIRCUIT DESCRIPTION


******************************************************************************




** Creating circuit file "HW5-2.cir" 
** WARNING: THIS AUTOMATICALLY GENERATED FILE MAY BE OVERWRITTEN BY SUBSEQUENT SIMULATIONS

*Libraries: 
* Profile Libraries :
* Local Libraries :
.LIB "../../../hw5-1-pspicefiles/hw5-1.lib" 
* From [PSPICE NETLIST] section of C:\SPB_Data\cdssetup\OrCAD_PSpice\17.2.0\PSpice.ini file:
.lib "nomd.lib" 

*Analysis directives: 
.DC LIN V_V1 0 5 0.001 
.OPTIONS ADVCONV
.PROBE64 V(alias(*)) I(alias(*)) W(alias(*)) D(alias(*)) NOISE(alias(*)) 
.INC "..\SCHEMATIC1.net" 



**** INCLUDING SCHEMATIC1.net ****
* source HW5-1
M_M1         N00412 N00395 0 0 Mbreakn           
V_V1         N00412 0 0Vdc
V_G         N00395 0 1

**** RESUMING HW5-2.cir ****
.END

WARNING(ORPSIM-15223): Library file D:\PANDA\Study\VE311\Homework\HW5\hw5-1-pspicefiles\hw5-1.lib has changed since index file hw5-1.ind was created.

WARNING(ORPSIM-15227): The timestamp changed from Wed Jul 03 00:56:56 2019 to Wed Jul 03 00:58:08 2019.

INFO(ORPSIM-15422): Making new index file hw5-1.ind for library file hw5-1.lib.

Index has 1 entries from 1 file(s).

**** FROM LIBRARY ../../../hw5-1-pspicefiles/hw5-1.lib ****
.model Mbreakn NMOS 
+W=10 +L=2
------$
ERROR -- '+L' is not a model parameter name
