
**** 07/07/19 00:08:59 ******* PSpice Lite (March 2016) ******* ID# 10813 ****

 ** Profile: "SCHEMATIC1-1-B"  [ D:\PANDA\Study\VE311\Homework\HW6\1-B\1-b-pspicefiles\schematic1\1-b.sim ] 


 ****     CIRCUIT DESCRIPTION


******************************************************************************




** Creating circuit file "1-B.cir" 
** WARNING: THIS AUTOMATICALLY GENERATED FILE MAY BE OVERWRITTEN BY SUBSEQUENT SIMULATIONS

*Libraries: 
* Profile Libraries :
* Local Libraries :
.LIB "../../../1-b-pspicefiles/1-b.lib" 
* From [PSPICE NETLIST] section of C:\SPB_Data\cdssetup\OrCAD_PSpice\17.2.0\PSpice.ini file:
.lib "nomd.lib" 

*Analysis directives: 
.TRAN  0 0.1 0 0.001 
.OPTIONS ADVCONV
.PROBE64 V(alias(*)) I(alias(*)) W(alias(*)) D(alias(*)) NOISE(alias(*)) 
.INC "..\SCHEMATIC1.net" 



**** INCLUDING SCHEMATIC1.net ****
* source 1-B
M_M2         N00951 N00760 0 0 Mbreakn           
V_V1         N01218 0 5V
M_M4         N00951 N00951 N01218 N01218 MbreakP           
V_V2         N00760 0  
+SIN 1 1 100 0 0 0

**** RESUMING 1-B.cir ****
.END

**** 07/07/19 00:08:59 ******* PSpice Lite (March 2016) ******* ID# 10813 ****

 ** Profile: "SCHEMATIC1-1-B"  [ D:\PANDA\Study\VE311\Homework\HW6\1-B\1-b-pspicefiles\schematic1\1-b.sim ] 


 ****     MOSFET MODEL PARAMETERS


******************************************************************************




               Mbreakn         MbreakP         
               NMOS            PMOS            
       LEVEL    1               1            
           L    2.000000E-06    2.000000E-06 
           W   35.700000E-06    5.000000E-06 
          LD   80.000000E-09   90.000000E-09 
         VTO     .7             -.8          
          KP  134.288900E-06   38.368260E-06 
       GAMMA    0               0            
         PHI     .9              .8          
      LAMBDA    0               0            
          IS   10.000000E-15   10.000000E-15 
          JS   10.000000E-09    5.000000E-09 
          PB     .9              .9          
        PBSW     .9              .9          
          CJ  560.000000E-06  940.000000E-06 
        CJSW    3.500000E-12    3.200000E-12 
          MJ     .45                         
        MJSW     .2              .3          
        CGSO    0               0            
        CGDO  400.000000E-12  300.000000E-12 
        CGBO    0               0            
        NSUB  900.000000E+12  500.000000E+12 
         TOX    9.000000E-09    9.000000E-09 
          XJ    0               0            
          UO  350             100            
       UCRIT   10.000000E+03   10.000000E+03 
      DIOMOD    1               1            
         VFB    0               0            
        LETA    0               0            
        WETA    0               0            
          U0    0               0            
        TEMP    0               0            
         VDD    5               5            
       XPART    0               0            


**** 07/07/19 00:08:59 ******* PSpice Lite (March 2016) ******* ID# 10813 ****

 ** Profile: "SCHEMATIC1-1-B"  [ D:\PANDA\Study\VE311\Homework\HW6\1-B\1-b-pspicefiles\schematic1\1-b.sim ] 


 ****     INITIAL TRANSIENT SOLUTION       TEMPERATURE =   27.000 DEG C


******************************************************************************



 NODE   VOLTAGE     NODE   VOLTAGE     NODE   VOLTAGE     NODE   VOLTAGE


(N00760)    1.0000 (N00951)    2.7085 (N01218)    5.0000 




    VOLTAGE SOURCE CURRENTS
    NAME         CURRENT

    V_V1        -1.172E-04
    V_V2         0.000E+00

    TOTAL POWER DISSIPATION   5.86E-04  WATTS



          JOB CONCLUDED

**** 07/07/19 00:08:59 ******* PSpice Lite (March 2016) ******* ID# 10813 ****

 ** Profile: "SCHEMATIC1-1-B"  [ D:\PANDA\Study\VE311\Homework\HW6\1-B\1-b-pspicefiles\schematic1\1-b.sim ] 


 ****     JOB STATISTICS SUMMARY


******************************************************************************



  Total job time (using Solver 1)   =         .03
