
**** 07/03/19 01:23:58 ******* PSpice Lite (March 2016) ******* ID# 10813 ****

 ** Profile: "SCHEMATIC1-HW5-2"  [ D:\PANDA\Study\VE311\Homework\HW5\HW5-1-PSpiceFiles\SCHEMATIC1\HW5-2.sim ] 


 ****     CIRCUIT DESCRIPTION


******************************************************************************




** Creating circuit file "HW5-2.cir" 
** WARNING: THIS AUTOMATICALLY GENERATED FILE MAY BE OVERWRITTEN BY SUBSEQUENT SIMULATIONS

*Libraries: 
* Profile Libraries :
* Local Libraries :
.LIB "../../../hw5-1-pspicefiles/hw5-1.lib" 
* From [PSPICE NETLIST] section of C:\SPB_Data\cdssetup\OrCAD_PSpice\17.2.0\PSpice.ini file:
.lib "nomd.lib" 

*Analysis directives: 
.DC LIN V_G 0 3 0.001 
.OPTIONS ADVCONV
.PROBE64 V(alias(*)) I(alias(*)) W(alias(*)) D(alias(*)) NOISE(alias(*)) 
.INC "..\SCHEMATIC1.net" 



**** INCLUDING SCHEMATIC1.net ****
* source HW5-1
M_M1         N00412 N00395 0 0 Mbreakn           
V_V5         N00412 0 5
V_G         N00395 0 0

**** RESUMING HW5-2.cir ****
.END

**** 07/03/19 01:23:58 ******* PSpice Lite (March 2016) ******* ID# 10813 ****

 ** Profile: "SCHEMATIC1-HW5-2"  [ D:\PANDA\Study\VE311\Homework\HW5\HW5-1-PSpiceFiles\SCHEMATIC1\HW5-2.sim ] 


 ****     MOSFET MODEL PARAMETERS


******************************************************************************




               Mbreakn         
               NMOS            
       LEVEL    1            
           L    2.000000E-06 
           W   10.000000E-06 
          LD   80.000000E-09 
         VTO     .7          
          KP  134.288900E-06 
       GAMMA     .45         
         PHI     .9          
      LAMBDA     .1          
          IS   10.000000E-15 
          JS   10.000000E-09 
          PB     .9          
        PBSW     .9          
          CJ  560.000000E-06 
        CJSW    3.500000E-12 
          MJ     .45         
        MJSW     .2          
        CGSO    0            
        CGDO  400.000000E-12 
        CGBO    0            
        NSUB  900.000000E+12 
         TOX    9.000000E-09 
          XJ    0            
          UO  350            
       UCRIT   10.000000E+03 
      DIOMOD    1            
         VFB    0            
        LETA    0            
        WETA    0            
          U0    0            
        TEMP    0            
         VDD    5            
       XPART    0            



          JOB CONCLUDED

**** 07/03/19 01:23:58 ******* PSpice Lite (March 2016) ******* ID# 10813 ****

 ** Profile: "SCHEMATIC1-HW5-2"  [ D:\PANDA\Study\VE311\Homework\HW5\HW5-1-PSpiceFiles\SCHEMATIC1\HW5-2.sim ] 


 ****     JOB STATISTICS SUMMARY


******************************************************************************



  Total job time (using Solver 1)   =         .03
