
**** 06/07/19 11:59:48 ******* PSpice Lite (March 2016) ******* ID# 10813 ****

 ** Profile: "SCHEMATIC1-2_0"  [ D:\PANDA\Study\VE311\Homework\HW1\HW1.2\2-pspicefiles\schematic1\2_0.sim ] 


 ****     CIRCUIT DESCRIPTION


******************************************************************************




** Creating circuit file "2_0.cir" 
** WARNING: THIS AUTOMATICALLY GENERATED FILE MAY BE OVERWRITTEN BY SUBSEQUENT SIMULATIONS

*Libraries: 
* Profile Libraries :
* Local Libraries :
* From [PSPICE NETLIST] section of C:\SPB_Data\cdssetup\OrCAD_PSpice\17.2.0\PSpice.ini file:
.lib "nomd.lib" 

*Analysis directives: 
.DC LIN V_V1 -2 2 0.01 
.OPTIONS ADVCONV
.PROBE64 V(alias(*)) I(alias(*)) W(alias(*)) D(alias(*)) NOISE(alias(*)) 
.INC "..\SCHEMATIC1.net" 



**** INCLUDING SCHEMATIC1.net ****
* source 2
D_D1         N00119 N00126 Dbreak 
R_Vout         0 N00126  1k TC=0,0 
V_V1         N00119 0 0Vdc

**** RESUMING 2_0.cir ****
.END

**** 06/07/19 11:59:48 ******* PSpice Lite (March 2016) ******* ID# 10813 ****

 ** Profile: "SCHEMATIC1-2_0"  [ D:\PANDA\Study\VE311\Homework\HW1\HW1.2\2-pspicefiles\schematic1\2_0.sim ] 


 ****     Diode MODEL PARAMETERS


******************************************************************************




               Dbreak          
          IS   10.000000E-15 
          RS     .1          
         CJO  100.000000E-15 



          JOB CONCLUDED

**** 06/07/19 11:59:48 ******* PSpice Lite (March 2016) ******* ID# 10813 ****

 ** Profile: "SCHEMATIC1-2_0"  [ D:\PANDA\Study\VE311\Homework\HW1\HW1.2\2-pspicefiles\schematic1\2_0.sim ] 


 ****     JOB STATISTICS SUMMARY


******************************************************************************



  Total job time (using Solver 1)   =         .06
