
**** 10/24/17 21:56:21 ******* PSpice Lite (March 2016) ******* ID# 10813 ****

 ** Profile: "SCHEMATIC1-2"  [ D:\PANDA\Study\VE215\PSpice\1\Test Project-PSpiceFiles\SCHEMATIC1\2.sim ] 


 ****     CIRCUIT DESCRIPTION


******************************************************************************




** Creating circuit file "2.cir" 
** WARNING: THIS AUTOMATICALLY GENERATED FILE MAY BE OVERWRITTEN BY SUBSEQUENT SIMULATIONS

*Libraries: 
* Profile Libraries :
* Local Libraries :
* From [PSPICE NETLIST] section of C:\SPB_Data\cdssetup\OrCAD_PSpice\17.2.0\PSpice.ini file:
.lib "nomd.lib" 

*Analysis directives: 
.TRAN  0 10 0 
.OPTIONS ADVCONV
.PROBE64 V(alias(*)) I(alias(*)) W(alias(*)) D(alias(*)) NOISE(alias(*)) 
.INC "..\SCHEMATIC1.net" 



**** INCLUDING SCHEMATIC1.net ****
* source TEST PROJECT
R_R1         N00893 N00225  1k TC=0,0 
C_C1         N00225  1n  TC=0,0 
----------------------------$
ERROR(ORPSIM-16144): Value may not be 0
V_V2         N00893 M_UN0001   
V_V3         N01215 0  
+PULSE -0.1 0.1 0 0 0 0.00025 0.0005
R_R2         N01215 N01224  1k TC=0,0 
C_C1         N01224 0  100n  TC=0,0 

ERROR(ORPSIM-15089): Can not re-define C_C1. C_C1 is either a system defined variable or has already been defined
-------------$
ERROR(ORPSIM-16371): Extra text on line

**** RESUMING 2.cir ****
.END
