
**** 07/17/19 00:15:22 ******* PSpice Lite (March 2016) ******* ID# 10813 ****

 ** Profile: "SCHEMATIC1-d2"  [ D:\PANDA\Study\VE311\Homework\HW7\d2\d2-PSpiceFiles\SCHEMATIC1\d2.sim ] 


 ****     CIRCUIT DESCRIPTION


******************************************************************************




** Creating circuit file "d2.cir" 
** WARNING: THIS AUTOMATICALLY GENERATED FILE MAY BE OVERWRITTEN BY SUBSEQUENT SIMULATIONS

*Libraries: 
* Profile Libraries :
* Local Libraries :
.LIB "../../../d2-pspicefiles/d2.lib" 
* From [PSPICE NETLIST] section of C:\SPB_Data\cdssetup\OrCAD_PSpice\17.2.0\PSpice.ini file:
.lib "nomd.lib" 

*Analysis directives: 
.DC LIN V_VX 0 5 0.01 
.OPTIONS ADVCONV
.PROBE64 V(alias(*)) I(alias(*)) W(alias(*)) D(alias(*)) NOISE(alias(*)) 
.INC "..\SCHEMATIC1.net" 



**** INCLUDING SCHEMATIC1.net ****
* source D2
V_VX         N00129 0 0Vdc
M_M2         N00840 N00243 0 0 Mbreakn  
+ L=2u  
+ W=20u         
V_V1         N00185 0 2.2
V_V2         N00243 0 1.2
M_M3         N00812 N00185 N00840 N00840 MbreakN  
+ L=2u  
+ W=100u         

**** RESUMING d2.cir ****
.END

ERROR(ORPSIM-15141): Less than 2 connections at node N00812.
