
**** 07/06/19 20:52:39 ******* PSpice Lite (March 2016) ******* ID# 10813 ****

 ** Profile: "SCHEMATIC1-B-2"  [ D:\PANDA\Study\VE311\Homework\HW6\1-B\1-B-PSpiceFiles\SCHEMATIC1\B-2.sim ] 


 ****     CIRCUIT DESCRIPTION


******************************************************************************




** Creating circuit file "B-2.cir" 
** WARNING: THIS AUTOMATICALLY GENERATED FILE MAY BE OVERWRITTEN BY SUBSEQUENT SIMULATIONS

*Libraries: 
* Profile Libraries :
* Local Libraries :
.LIB "../../../1-b-pspicefiles/1-b.lib" 
* From [PSPICE NETLIST] section of C:\SPB_Data\cdssetup\OrCAD_PSpice\17.2.0\PSpice.ini file:
.lib "nomd.lib" 

*Analysis directives: 
.DC LIN V_V 0 5 0.0001 
.OPTIONS ADVCONV
.PROBE64 V(alias(*)) I(alias(*)) W(alias(*)) D(alias(*)) NOISE(alias(*)) 
.INC "..\SCHEMATIC1.net" 



**** INCLUDING SCHEMATIC1.net ****
* source 1-B
M_M1         N01529 N01627 0 0 MbreakN           
M_M2         N01620 N01529 N01529 N01529 MbreakP           
V_V         N01627 0 0Vdc
V_V2         N01620 0 5

**** RESUMING B-2.cir ****
.END

**** 07/06/19 20:52:39 ******* PSpice Lite (March 2016) ******* ID# 10813 ****

 ** Profile: "SCHEMATIC1-B-2"  [ D:\PANDA\Study\VE311\Homework\HW6\1-B\1-B-PSpiceFiles\SCHEMATIC1\B-2.sim ] 


 ****     MOSFET MODEL PARAMETERS


******************************************************************************




               MbreakP         MbreakN         
               PMOS            NMOS            
       LEVEL    1               1            
           L    2.000000E-06  100.000000E-06 
           W    5.000000E-06  100.000000E-06 
          LD   90.000000E-09                 
         VTO    -.8             0            
          KP   38.368260E-06   20.000000E-06 
       GAMMA    0               0            
         PHI     .8              .6          
      LAMBDA    0               0            
          IS   10.000000E-15   10.000000E-15 
          JS    5.000000E-09    0            
          PB     .9              .8          
        PBSW     .9              .8          
          CJ  940.000000E-06    0            
        CJSW    3.200000E-12    0            
        MJSW     .3                          
        CGSO    0               0            
        CGDO  300.000000E-12    0            
        CGBO    0               0            
        NSUB  500.000000E+12                 
         TOX    9.000000E-09    0            
          XJ    0               0            
          UO  100                            
       UCRIT   10.000000E+03   10.000000E+03 
      DIOMOD    1               1            
         VFB    0               0            
        LETA    0               0            
        WETA    0               0            
          U0    0               0            
        TEMP    0               0            
         VDD    5               5            
       XPART    0               0            



          JOB CONCLUDED

**** 07/06/19 20:52:39 ******* PSpice Lite (March 2016) ******* ID# 10813 ****

 ** Profile: "SCHEMATIC1-B-2"  [ D:\PANDA\Study\VE311\Homework\HW6\1-B\1-B-PSpiceFiles\SCHEMATIC1\B-2.sim ] 


 ****     JOB STATISTICS SUMMARY


******************************************************************************



  Total job time (using Solver 1)   =         .45
