
**** 07/06/19 20:49:52 ******* PSpice Lite (March 2016) ******* ID# 10813 ****

 ** Profile: "SCHEMATIC1-B-2"  [ D:\PANDA\Study\VE311\Homework\HW6\1-B\1-B-PSpiceFiles\SCHEMATIC1\B-2.sim ] 


 ****     CIRCUIT DESCRIPTION


******************************************************************************




** Creating circuit file "B-2.cir" 
** WARNING: THIS AUTOMATICALLY GENERATED FILE MAY BE OVERWRITTEN BY SUBSEQUENT SIMULATIONS

*Libraries: 
* Profile Libraries :
* Local Libraries :
.LIB "../../../1-b-pspicefiles/1-b.lib" 
* From [PSPICE NETLIST] section of C:\SPB_Data\cdssetup\OrCAD_PSpice\17.2.0\PSpice.ini file:
.lib "nomd.lib" 

*Analysis directives: 
.DC LIN V_V 0 5 0.0001 
.OPTIONS ADVCONV
.PROBE64 V(alias(*)) I(alias(*)) W(alias(*)) D(alias(*)) NOISE(alias(*)) 
.INC "..\SCHEMATIC1.net" 



**** INCLUDING SCHEMATIC1.net ****
* source 1-B
M_M1         0 N00325 0 0 Mbreakn           
M_M2         N00333 N00333 0 0 Mbreakp           
V_V2         N00333 0 5V
V_V         N00325 0 0

**** RESUMING B-2.cir ****
.END

**** 07/06/19 20:49:52 ******* PSpice Lite (March 2016) ******* ID# 10813 ****

 ** Profile: "SCHEMATIC1-B-2"  [ D:\PANDA\Study\VE311\Homework\HW6\1-B\1-B-PSpiceFiles\SCHEMATIC1\B-2.sim ] 


 ****     MOSFET MODEL PARAMETERS


******************************************************************************




               Mbreakp         Mbreakn         
               PMOS            NMOS            
       LEVEL    1               1            
           L    2.000000E-06  100.000000E-06 
           W    5.000000E-06  100.000000E-06 
          LD   90.000000E-09                 
         VTO    -.8             0            
          KP   38.368260E-06   20.000000E-06 
       GAMMA    0               0            
         PHI     .8              .6          
      LAMBDA    0               0            
          IS   10.000000E-15   10.000000E-15 
          JS    5.000000E-09    0            
          PB     .9              .8          
        PBSW     .9              .8          
          CJ  940.000000E-06    0            
        CJSW    3.200000E-12    0            
        MJSW     .3                          
        CGSO    0               0            
        CGDO  300.000000E-12    0            
        CGBO    0               0            
        NSUB  500.000000E+12                 
         TOX    9.000000E-09    0            
          XJ    0               0            
          UO  100                            
       UCRIT   10.000000E+03   10.000000E+03 
      DIOMOD    1               1            
         VFB    0               0            
        LETA    0               0            
        WETA    0               0            
          U0    0               0            
        TEMP    0               0            
         VDD    5               5            
       XPART    0               0            


Starting pseudo-transient algorithm.

ERROR(ORPSIM-16550): Floating point computation failed during matrix solution. Possible solutions: 1)Ensure that all device parameters are in valid range. 2)Try using .options LIMIT

INTERNAL ERROR -- Divide by Zero, Divide

ABORTING SIMULATION
**** 07/06/19 20:49:52 ******* PSpice Lite (March 2016) ******* ID# 10813 ****

 ** Profile: "SCHEMATIC1-B-2"  [ D:\PANDA\Study\VE311\Homework\HW6\1-B\1-B-PSpiceFiles\SCHEMATIC1\B-2.sim ] 


 ****     JOB STATISTICS SUMMARY


******************************************************************************



Node counts:
  Top level (NUNODS)                =           3
  External (NCNODS)                 =           3
  Total (NUMNOD)                    =           3

Total device count (NUMEL)          =           4
  MosFETs (M)                       =           2
  Voltage Sources (V)               =           2

Number of subcircuits (X)           =           0

Matrix statistics:
  Matrix size (NSTOP)               =           5
  Initial no. elements (NTTAR)      =           6
  No. elements w/ fillin (NTTBR)    =           6
  No. fillins (IFILL)               =           0
  No. overflows (NTTOV)             =          13
  No. LU operations (IOPS)          =           0
  Percent sparsity (PERSPA)         =      76.000

Analysis statistics:
  No. total time points (NUMTTP)    =          93
  No. rejected time points (NUMRTP) =          33
  No. iterations (NUMNIT)           =         522

Load Threads                        =           1

Runtime statistics:                       Seconds      Iterations
  Matrix load                       =         .02
  Matrix solution                   =        0.00              21
  Readin                            =        0.00
  General setup                     =         .06
  CMI setup                     =        0.00
  Setup                             =        0.00
  DC sweep                          =        0.00               0
  Bias point                        =        0.00               0
  AC and noise                      =        0.00               0
  Total transient analysis          =        0.00
  Output                            =        0.00
  Overhead                          =        0.00
  Total job time (using Solver 1)   =         .08
