
**** 07/31/19 15:18:52 ******* PSpice Lite (March 2016) ******* ID# 10813 ****

 ** Profile: "SCHEMATIC1-b"  [ D:\PANDA\Study\VE311\Homework\HW8\b\b-PSpiceFiles\SCHEMATIC1\b.sim ] 


 ****     CIRCUIT DESCRIPTION


******************************************************************************




** Creating circuit file "b.cir" 
** WARNING: THIS AUTOMATICALLY GENERATED FILE MAY BE OVERWRITTEN BY SUBSEQUENT SIMULATIONS

*Libraries: 
* Profile Libraries :
* Local Libraries :
.LIB "../../../b-pspicefiles/b.lib" 
* From [PSPICE NETLIST] section of C:\SPB_Data\cdssetup\OrCAD_PSpice\17.2.0\PSpice.ini file:
.lib "nomd.lib" 

*Analysis directives: 
.DC LIN V_Vin -4 4 0.01 
.OPTIONS ADVCONV
.PROBE64 V(alias(*)) I(alias(*)) W(alias(*)) D(alias(*)) NOISE(alias(*)) 
.INC "..\SCHEMATIC1.net" 



**** INCLUDING SCHEMATIC1.net ****
* source B
V_V2         N00375 0 5
V_V3         N00508 0 5
M_M1         N001382 N00337 N00184 N00184 Mbreakn  
+ L=2u  
+ W=50u         
M_M2         N001582 N00349 N00184 N00184 MbreakN  
+ L=2u  
+ W=50u         
M_M3         N00184 N00762 0 0 MbreakN  
+ L=2u  
+ W=100u         
V_V5         N00762 0 1.2
V_Vin         N00337 N00349 0Vdc
R_R1         N001382 N00508  5k TC=0,0 
R_R2         N001582 N00375  5k TC=0,0 

**** RESUMING b.cir ****
.END

ERROR(ORPSIM-15142): Node N00337 is floating

ERROR(ORPSIM-15142): Node N00349 is floating
