
**** 07/31/19 15:38:24 ******* PSpice Lite (March 2016) ******* ID# 10813 ****

 ** Profile: "SCHEMATIC1-c"  [ D:\PANDA\Study\VE311\Homework\HW8\b\b-PSpiceFiles\SCHEMATIC1\c.sim ] 


 ****     CIRCUIT DESCRIPTION


******************************************************************************




** Creating circuit file "c.cir" 
** WARNING: THIS AUTOMATICALLY GENERATED FILE MAY BE OVERWRITTEN BY SUBSEQUENT SIMULATIONS

*Libraries: 
* Profile Libraries :
* Local Libraries :
.LIB "../../../b-pspicefiles/b.lib" 
* From [PSPICE NETLIST] section of C:\SPB_Data\cdssetup\OrCAD_PSpice\17.2.0\PSpice.ini file:
.lib "nomd.lib" 

*Analysis directives: 
.DC LIN Vcm 0 5 0.001 
.OPTIONS ADVCONV
.PROBE64 V(alias(*)) I(alias(*)) W(alias(*)) D(alias(*)) NOISE(alias(*)) 
.INC "..\SCHEMATIC1.net" 



**** INCLUDING SCHEMATIC1.net ****
* source B
V_V2         N00956 0 5
M_M1         N001382 N01076 N00184 N00184 Mbreakn  
+ L=2u  
+ W=50u         
M_M2         N001582 N01034 N00184 N00184 MbreakN  
+ L=2u  
+ W=50u         
M_M3         N00184 N00762 0 0 MbreakN  
+ L=2u  
+ W=100u         
V_V5         N00762 0 1.2
R_R1         N001382 N00956  5k TC=0,0 
R_R2         N001582 N00956  5k TC=0,0 
V_Vin         N01076 N01274 0Vdc
E_E1         N01034 N01274 N01076 N01274 -1
V_Vc         N01274 0 2.2

**** RESUMING c.cir ****
.END


ERROR(ORPSIM-15090): DC device Vcm is undefined
