
**** 06/22/19 16:06:27 ******* PSpice Lite (March 2016) ******* ID# 10813 ****

 ** Profile: "SCHEMATIC1-hw4b"  [ D:\PANDA\Study\VE311\Homework\HW4\hw4-PSpiceFiles\SCHEMATIC1\hw4b.sim ] 


 ****     CIRCUIT DESCRIPTION


******************************************************************************




** Creating circuit file "hw4b.cir" 
** WARNING: THIS AUTOMATICALLY GENERATED FILE MAY BE OVERWRITTEN BY SUBSEQUENT SIMULATIONS

*Libraries: 
* Profile Libraries :
* Local Libraries :
.LIB "../../../hw4-pspicefiles/hw4.lib" 
* From [PSPICE NETLIST] section of C:\SPB_Data\cdssetup\OrCAD_PSpice\17.2.0\PSpice.ini file:
.lib "nomd.lib" 

*Analysis directives: 
.DC LIN V_V3 0 1 0.0001 
.OPTIONS ADVCONV
.PROBE64 V(alias(*)) I(alias(*)) W(alias(*)) D(alias(*)) NOISE(alias(*)) 
.INC "..\SCHEMATIC1.net" 



**** INCLUDING SCHEMATIC1.net ****
* source HW4
R_R1         N000811 N00159  5k TC=0,0 
V_V2         N00159 0 3
Q_Q1         N000811 N00239 0 Unknown000 
V_V3         N00239 0 0Vdc

**** RESUMING hw4b.cir ****
.END

INFO(ORPSIM-15423): Unable to find index file hw4.ind for library file hw4.lib.

INFO(ORPSIM-15422): Making new index file hw4.ind for library file hw4.lib.

Index has 1 entries from 1 file(s).

ERROR(ORPSIM-15113): Model Unknown000 used by Q_Q1 is undefined
