
**** 07/16/19 15:55:35 ******* PSpice Lite (March 2016) ******* ID# 10813 ****

 ** Profile: "SCHEMATIC1-d1"  [ D:\PANDA\Study\VE311\Homework\HW7\d1\d1-pspicefiles\schematic1\d1.sim ] 


 ****     CIRCUIT DESCRIPTION


******************************************************************************




** Creating circuit file "d1.cir" 
** WARNING: THIS AUTOMATICALLY GENERATED FILE MAY BE OVERWRITTEN BY SUBSEQUENT SIMULATIONS

*Libraries: 
* Profile Libraries :
* Local Libraries :
.LIB "../../../d1-pspicefiles/d1.lib" 
* From [PSPICE NETLIST] section of C:\SPB_Data\cdssetup\OrCAD_PSpice\17.2.0\PSpice.ini file:
.lib "nomd.lib" 

*Analysis directives: 
.DC LIN V_VX 0 5 0.01 
.OPTIONS ADVCONV
.PROBE64 V(alias(*)) I(alias(*)) W(alias(*)) D(alias(*)) NOISE(alias(*)) 
.INC "..\SCHEMATIC1.net" 



**** INCLUDING SCHEMATIC1.net ****
* source D1
V_VX         N00084 0 0Vdc
M_M1         N00084 N00440 0 0 MbreakN           
V_V1         N00440 0 1.2

**** RESUMING d1.cir ****
.END

**** 07/16/19 15:55:35 ******* PSpice Lite (March 2016) ******* ID# 10813 ****

 ** Profile: "SCHEMATIC1-d1"  [ D:\PANDA\Study\VE311\Homework\HW7\d1\d1-pspicefiles\schematic1\d1.sim ] 


 ****     MOSFET MODEL PARAMETERS


******************************************************************************




               MbreakN         
               NMOS            
       LEVEL    1            
           L    2.000000E-06 
           W   20.000000E-06 
          LD   80.000000E-09 
         VTO     .7          
          KP  134.288900E-06 
       GAMMA    0            
         PHI     .9          
      LAMBDA     .1          
          IS   10.000000E-15 
          JS   10.000000E-09 
          PB     .9          
        PBSW     .9          
          CJ  560.000000E-06 
        CJSW    3.500000E-12 
          MJ     .45         
        MJSW     .2          
        CGSO    0            
        CGDO  400.000000E-12 
        CGBO    0            
        NSUB  900.000000E+12 
         TOX    9.000000E-09 
          XJ    0            
          UO  350            
       UCRIT   10.000000E+03 
      DIOMOD    1            
         VFB    0            
        LETA    0            
        WETA    0            
          U0    0            
        TEMP    0            
         VDD    5            
       XPART    0            



          JOB CONCLUDED

**** 07/16/19 15:55:35 ******* PSpice Lite (March 2016) ******* ID# 10813 ****

 ** Profile: "SCHEMATIC1-d1"  [ D:\PANDA\Study\VE311\Homework\HW7\d1\d1-pspicefiles\schematic1\d1.sim ] 


 ****     JOB STATISTICS SUMMARY


******************************************************************************



  Total job time (using Solver 1)   =         .06
