
**** 07/31/19 15:51:57 ******* PSpice Lite (March 2016) ******* ID# 10813 ****

 ** Profile: "SCHEMATIC1-b"  [ D:\PANDA\Study\VE311\Homework\HW8\b\b-PSpiceFiles\SCHEMATIC1\b.sim ] 


 ****     CIRCUIT DESCRIPTION


******************************************************************************




** Creating circuit file "b.cir" 
** WARNING: THIS AUTOMATICALLY GENERATED FILE MAY BE OVERWRITTEN BY SUBSEQUENT SIMULATIONS

*Libraries: 
* Profile Libraries :
* Local Libraries :
.LIB "../../../b-pspicefiles/b.lib" 
* From [PSPICE NETLIST] section of C:\SPB_Data\cdssetup\OrCAD_PSpice\17.2.0\PSpice.ini file:
.lib "nomd.lib" 

*Analysis directives: 
.DC LIN V_Vin -2 2 0.0001 
.OPTIONS ADVCONV
.PROBE64 V(alias(*)) I(alias(*)) W(alias(*)) D(alias(*)) NOISE(alias(*)) 
.INC "..\SCHEMATIC1.net" 



**** INCLUDING SCHEMATIC1.net ****
* source B
V_V2         N00956 0 5
M_M1         N001382 N01076 N00184 N00184 Mbreakn  
+ L=2u  
+ W=50u         
M_M2         N001582 N01034 N00184 N00184 MbreakN  
+ L=2u  
+ W=50u         
M_M3         N00184 N00762 0 0 MbreakN  
+ L=2u  
+ W=100u         
V_V5         N00762 0 1.2
R_R1         N001382 N00956  5k TC=0,0 
R_R2         N001582 N00956  5k TC=0,0 
V_Vin         N01076 N01274 0Vdc
E_E1         N01034 N01274 N01076 N01274 -1
V_Vcm         N01274 0 2.2

**** RESUMING b.cir ****
.END

**** 07/31/19 15:51:57 ******* PSpice Lite (March 2016) ******* ID# 10813 ****

 ** Profile: "SCHEMATIC1-b"  [ D:\PANDA\Study\VE311\Homework\HW8\b\b-PSpiceFiles\SCHEMATIC1\b.sim ] 


 ****     MOSFET MODEL PARAMETERS


******************************************************************************




               Mbreakn         
               NMOS            
       LEVEL    1            
           L    2.000000E-06 
           W   50.000000E-06 
          LD   80.000000E-09 
         VTO     .7          
          KP  134.288900E-06 
       GAMMA    0            
         PHI     .9          
      LAMBDA    0            
          IS   10.000000E-15 
          JS   10.000000E-09 
          PB     .9          
        PBSW     .9          
          CJ  560.000000E-06 
        CJSW    3.500000E-12 
          MJ     .45         
        MJSW     .2          
        CGSO    0            
        CGDO  400.000000E-12 
        CGBO    0            
        NSUB  900.000000E+12 
         TOX    9.000000E-09 
          XJ    0            
          UO  350            
       UCRIT   10.000000E+03 
      DIOMOD    1            
         VFB    0            
        LETA    0            
        WETA    0            
          U0    0            
        TEMP    0            
         VDD    5            
       XPART    0            



          JOB CONCLUDED

**** 07/31/19 15:51:57 ******* PSpice Lite (March 2016) ******* ID# 10813 ****

 ** Profile: "SCHEMATIC1-b"  [ D:\PANDA\Study\VE311\Homework\HW8\b\b-PSpiceFiles\SCHEMATIC1\b.sim ] 


 ****     JOB STATISTICS SUMMARY


******************************************************************************



  Total job time (using Solver 1)   =         .38
